Version 4
SHEET 1 1124 680
WIRE 416 -208 192 -208
WIRE 592 -208 416 -208
WIRE 192 48 192 -208
WIRE 192 48 112 48
WIRE 256 48 192 48
WIRE 592 48 592 -208
WIRE 592 48 496 48
WIRE 640 48 592 48
WIRE 112 80 112 48
WIRE 256 80 256 48
WIRE 496 80 496 48
WIRE 640 80 640 48
WIRE 16 128 -144 128
WIRE 16 160 16 128
WIRE 64 160 16 160
WIRE 448 160 400 160
WIRE 208 176 144 176
WIRE 592 176 592 160
WIRE 592 176 544 176
WIRE 112 208 112 176
WIRE 176 208 112 208
WIRE 256 208 256 176
WIRE 256 208 176 208
WIRE 496 208 496 176
WIRE 560 208 496 208
WIRE 640 208 640 176
WIRE 640 208 560 208
WIRE 64 224 -80 224
WIRE 144 224 144 176
WIRE 144 224 64 224
WIRE 400 224 400 160
WIRE 544 224 544 176
WIRE 544 224 400 224
WIRE 560 240 560 208
WIRE 752 240 560 240
WIRE 176 256 176 208
WIRE 400 256 400 224
WIRE 400 256 176 256
WIRE 560 256 560 240
WIRE -80 336 -80 224
WIRE 16 336 16 160
WIRE 128 336 16 336
WIRE 400 336 400 256
WIRE 512 336 400 336
WIRE 176 384 176 352
WIRE 560 384 560 352
WIRE 64 464 64 224
WIRE 128 464 64 464
WIRE 400 464 400 336
WIRE 512 464 400 464
FLAG 416 -128 0
FLAG -144 208 0
FLAG -80 416 0
FLAG 176 480 0
FLAG 560 480 0
SYMBOL pmos 64 80 R0
SYMATTR InstName M1
SYMBOL pmos 208 80 R0
SYMATTR InstName M2
SYMBOL nmos 128 256 R0
SYMATTR InstName M3
SYMBOL nmos 128 384 R0
SYMATTR InstName M4
SYMBOL pmos 448 80 R0
SYMATTR InstName M5
SYMBOL pmos 592 80 R0
SYMATTR InstName M6
SYMBOL nmos 512 256 R0
SYMATTR InstName M7
SYMBOL nmos 512 384 R0
SYMATTR InstName M8
SYMBOL voltage 416 -224 R0
WINDOW 123 0 0 Left 0
WINDOW 39 0 0 Left 0
SYMATTR InstName VDD
SYMATTR Value 5
SYMBOL voltage -144 112 R0
WINDOW 123 0 0 Left 0
WINDOW 39 0 0 Left 0
SYMATTR InstName VA
SYMATTR Value PULSE(0 5 0 5ns 5ns 20m 40m)
SYMBOL voltage -80 320 R0
WINDOW 123 0 0 Left 0
WINDOW 39 0 0 Left 0
SYMATTR InstName VB
SYMATTR Value PULSE(0 5 0 5ns 5ns 40m 80m)
TEXT 288 576 Left 2 !.tran 160
